src/tests/data/grids/three_winding_transformer.dgs
********************************************************************************
*
* DIgSILENT (R) DGS Export V1.8.4
* Copyright 1997-2026 DIgSILENT GmbH. All rights reserved.
*
* DIgSILENT (C) PowerFactory V25.0.6.0
*
* Date:     03/09/2026 13:16
* Project:  three-winding-transformers (Study Case: Study Case)
*
********************************************************************************


$$General;FID(a:40);Descr(a:40);Val(a:255)
  1;Version;7.0


$$ElmLod;FID(a:40);OP(a:1);loc_name(a:80);fold_id(p);typ_id(p);mode_inp(a:6);slini(r);plini(r);qlini(r);coslini(r);pf_recap(i);scale0(r);i_scale(i);outserv(i);classif(a:40)
  2;C;LV Load;4;;DEF;0,538516;0,5;0,2;0,928476;0;1;0;0;
  3;C;MV Load;4;;DEF;5,385165;5;2;0,928476;0;1;0;0;


$$ElmNet;FID(a:40);OP(a:1);loc_name(a:80);fold_id(p);frnom(r);pDiagram(p)
  4;C;Grid;;50;24


$$ElmTerm;FID(a:40);OP(a:1);loc_name(a:80);fold_id(p);typ_id(p);systype(i);iUsage(i);uknom(r);unknom(r);iminus(i);outserv(i);GPSlat(r);GPSlon(r);vtarget(r)
  5;C;HV Bus;4;;0;0;110;63,50853;0;0;0;0;1
  6;C;LV Bus;4;;0;0;0,4;0,230940;0;0;0;0;1
  7;C;MV Bus;4;;0;0;33;19,05256;0;0;0;0;1


$$ElmTr3;FID(a:40);OP(a:1);loc_name(a:80);fold_id(p);nt3nm(i);typ_id(p);outserv(i);n3tap_h(i);n3tap_m(i);n3tap_l(i);i_auto_hl(i);ictrlside(i);ntrcn(i);t3ldc(i);usetp(r);usp_low(r);usp_up(r)
  8;C;3-Winding Transformer;4;1;37;0;0;0;0;0;0;0;0;1;0,99;1,01


$$IntFolder;FID(a:40);OP(a:1);loc_name(a:80);fold_id(p)
  9;C;Layers;24
  10;C;Settings;24


$$IntGrf;FID(a:40);OP(a:1);loc_name(a:80);fold_id(p);iCol(i);iVis(i);iLevel(i);rCenterX(r);rCenterY(r);sSymNam(a:80);pDataObj(p);iRot(i);rSizeX(r);rSizeY(r)
  11;C;Graphical Net Object1;24;-16777216;1;1;166,25;153,125;TermStrip;5;0;1;1
  12;C;Graphical Net Object2;24;-16777216;1;1;118,125;65,625;TermStrip;7;0;1;1
  13;C;Graphical Net Object3;24;-16777216;1;1;214,375;65,625;TermStrip;6;0;1;1
  14;C;Graphical Net Object4;24;-16777216;1;1;166,25;109,375;d_tr3;8;0;1;1
  15;C;Graphical Net Object5;24;-16777216;1;1;214,375;48,125;d_load;2;0;1;1
  16;C;Graphical Net Object6;24;-16777216;1;1;118,125;48,125;d_load;3;0;1;1
  17;C;Graphical Net Object7;24;-16777216;1;1;166,25;170,625;d_vac;;180;1;1


$$IntGrfcon;FID(a:40);OP(a:1);loc_name(a:80);fold_id(p);rX:SIZEROW(i);rX:0(r);rX:1(r);rX:2(r);rY:SIZEROW(i);rY:0(r);rY:1(r);rY:2(r);iDatConNr(i)
  18;C;GCO_1;14;2;166,25;166,25;;2;113,75;153,125;;0
  19;C;GCO_2;14;3;161,875;118,125;118,125;3;105;105;65,625;1
  20;C;GCO_3;14;3;170,625;214,375;214,375;3;105;105;65,625;2
  21;C;GCO_1;15;2;214,375;214,375;;2;52,5;65,625;;0
  22;C;GCO_1;16;2;118,125;118,125;;2;52,5;65,625;;0
  23;C;GCO_1;17;2;166,25;166,25;;2;166,25;153,125;;0


$$IntGrfnet;FID(a:40);OP(a:1);loc_name(a:80);fold_id(p);snap_on(i);ortho_on(i);pDataFolder(p)
  24;C;Grid;;1;1;4


$$StaCubic;FID(a:40);OP(a:1);loc_name(a:80);fold_id(p);obj_bus(i);obj_id(p);it2p1(i);it2p2(i);it2p3(i)
  25;C;Cub_1;5;0;8;0;1;2
  26;C;Cub_2;5;0;;0;1;2
  27;C;Cub_1;6;2;8;0;1;2
  28;C;Cub_2;6;0;2;0;1;2
  29;C;Cub_1;7;1;8;0;1;2
  30;C;Cub_2;7;0;3;0;1;2


$$StaSwitch;FID(a:40);OP(a:1);loc_name(a:80);fold_id(p);on_off(i);typ_id(p);aUsage(a)
  31;C;Switch;25;1;;cbk
  32;C;Switch;26;1;;cbk
  33;C;Switch;27;1;;cbk
  34;C;Switch;28;1;;cbk
  35;C;Switch;29;1;;cbk
  36;C;Switch;30;1;;cbk


$$TypTr3;FID(a:40);OP(a:1);loc_name(a:80);fold_id(p);strn3_h(r);strn3_m(r);strn3_l(r);utrn3_h(r);utrn3_m(r);utrn3_l(r);uktr3_h(r);uktr3_m(r);uktr3_l(r);pcut3_h(r);pcut3_m(r);pcut3_l(r);uk0hm(r);uk0ml(r);uk0hl(r);ur0hm(r);ur0ml(r);ur0hl(r);tr3cn_h(a:4);tr3cn_m(a:4);tr3cn_l(a:4);nt3ag_h(r);nt3ag_m(r);nt3ag_l(r);curm3(r);pfe(r);du3tp_h(r);ph3tr_h(r);n3tp0_h(i);n3tmn_h(i);n3tmx_h(i);du3tp_m(r);ph3tr_m(r);n3tp0_m(i);n3tmn_m(i);n3tmx_m(i);du3tp_l(r);ph3tr_l(r);n3tp0_l(i);n3tmn_l(i);n3tmx_l(i);itapos(i);i3loc(i)
  37;C;3-Winding Transformer Type;;1;1;1;110;33;0,4;3;3;3;0;0;0;3;3;3;0;0;0;YN;YN;YN;0;0;0;0;0;0;0;0;0;0;0;0;0;0;0;0;0;0;0;0;0;0
